5QCT
 OpenBabel11252210453D

 87 88  0  0  1  0  0  0  0  0999 V2000
   30.3440    5.6080   15.7380 N   0  0  0  0  0  0  0  0  0  0  0  0
   31.5100    5.8370   14.8450 C   0  0  1  0  0  0  0  0  0  0  0  0
   32.5010    6.8020   15.5150 C   0  0  0  0  0  0  0  0  0  0  0  0
   31.8350    8.1570   15.8630 C   0  0  1  0  0  0  0  0  0  0  0  0
   32.6110    8.8210   17.0140 C   0  0  0  0  0  0  0  0  0  0  0  0
   32.0590   10.1840   17.4580 C   0  0  0  0  0  0  0  0  0  0  0  0
   30.5600   10.1820   17.7910 C   0  0  0  0  0  0  0  0  0  0  0  0
   30.2650    9.3070   19.0160 C   0  0  0  0  0  0  0  0  0  0  0  0
   28.7550    9.2490   19.3070 C   0  0  0  0  0  0  0  0  0  0  0  0
   28.4120    8.2190   20.3220 N   0  0  0  0  0  0  0  0  0  0  0  0
   27.7310    7.0460   20.0140 C   0  0  0  0  0  0  0  0  0  0  0  0
   27.3320    6.7190   18.6020 C   0  0  0  0  0  0  0  0  0  0  0  0
   28.3270    6.5200   17.6460 C   0  0  0  0  0  0  0  0  0  0  0  0
   27.9980    5.9510   16.4040 C   0  0  0  0  0  0  0  0  0  0  0  0
   26.6890    5.5660   16.1390 C   0  0  0  0  0  0  0  0  0  0  0  0
   25.6790    5.8780   17.0820 C   0  0  0  0  0  0  0  0  0  0  0  0
   25.9860    6.4520   18.3210 C   0  0  0  0  0  0  0  0  0  0  0  0
   24.4290    5.5250   16.6470 O   0  0  0  0  0  0  0  0  0  0  0  0
   23.2660    6.1090   17.3320 C   0  0  0  0  0  0  0  0  0  0  0  0
   22.1230    5.8600   16.3640 C   0  0  0  0  0  0  0  0  0  0  0  0
   29.0360    5.8400   15.3160 C   0  0  0  0  0  0  0  0  0  0  0  0
   28.7550    5.9310   14.1260 O   0  0  0  0  0  0  0  0  0  0  0  0
   27.4510    6.2460   20.9030 O   0  0  0  0  0  0  0  0  0  0  0  0
   29.1260    8.3070   21.6310 C   0  0  0  0  0  0  0  0  0  0  0  0
   30.3520    7.3820   21.6960 C   0  0  0  0  0  0  0  0  0  0  0  0
   31.7250    9.0740   14.6430 C   0  0  0  0  0  0  0  0  0  0  0  0
   32.1030    4.4290   14.5230 C   0  0  1  0  0  0  0  0  0  0  0  0
   33.1920    4.5740   13.5930 O   0  0  0  0  0  0  0  0  0  0  0  0
   31.0100    3.5700   13.8500 C   0  0  0  0  0  0  0  0  0  0  0  0
   31.5410    2.5650   12.8200 C   0  0  1  0  0  0  0  0  0  0  0  0
   30.6510    1.3250   12.7180 C   0  0  0  0  0  0  0  0  0  0  0  0
   31.6110    3.2670   11.4520 C   0  0  0  0  0  0  0  0  0  0  0  0
   30.6540    3.8220   10.9280 O   0  0  0  0  0  0  0  0  0  0  0  0
   32.8430    3.1430   10.7900 N   0  0  0  0  0  0  0  0  0  0  0  0
   33.2520    4.1040    9.7330 C   0  0  0  0  0  0  0  0  0  0  0  0
   34.3060    3.4700    8.8100 C   0  0  0  0  0  0  0  0  0  0  0  0
   34.9870    4.5380    7.9370 C   0  0  0  0  0  0  0  0  0  0  0  0
   34.0080    5.2640    7.0090 C   0  0  0  0  0  0  0  0  0  0  0  0
   30.5920    5.5350   16.7400 H   0  0  0  0  0  0  0  0  0  0  0  0
   31.1740    6.3060   13.8850 H   0  0  0  0  0  0  0  0  0  0  0  0
   32.9060    6.3400   16.4440 H   0  0  0  0  0  0  0  0  0  0  0  0
   33.3600    6.9760   14.8240 H   0  0  0  0  0  0  0  0  0  0  0  0
   30.8000    7.9630   16.2410 H   0  0  0  0  0  0  0  0  0  0  0  0
   32.5770    8.1220   17.8830 H   0  0  0  0  0  0  0  0  0  0  0  0
   33.6650    8.9660   16.7020 H   0  0  0  0  0  0  0  0  0  0  0  0
   32.6260   10.5080   18.3600 H   0  0  0  0  0  0  0  0  0  0  0  0
   32.2460   10.9410   16.6580 H   0  0  0  0  0  0  0  0  0  0  0  0
   29.9810    9.8170   16.9130 H   0  0  0  0  0  0  0  0  0  0  0  0
   30.2500   11.2350   17.9860 H   0  0  0  0  0  0  0  0  0  0  0  0
   30.6540    8.2770   18.8320 H   0  0  0  0  0  0  0  0  0  0  0  0
   30.8160    9.7320   19.8870 H   0  0  0  0  0  0  0  0  0  0  0  0
   28.2000    9.0520   18.3540 H   0  0  0  0  0  0  0  0  0  0  0  0
   28.4050   10.2390   19.7010 H   0  0  0  0  0  0  0  0  0  0  0  0
   29.3550    6.8180   17.8670 H   0  0  0  0  0  0  0  0  0  0  0  0
   26.4120    5.0290   15.2340 H   0  0  0  0  0  0  0  0  0  0  0  0
   25.2130    6.6890   19.0550 H   0  0  0  0  0  0  0  0  0  0  0  0
   23.1310    5.5680   18.2950 H   0  0  0  0  0  0  0  0  0  0  0  0
   23.4410    7.1990   17.4880 H   0  0  0  0  0  0  0  0  0  0  0  0
   29.4370    9.3750   21.7720 H   0  0  0  0  0  0  0  0  0  0  0  0
   28.3910    8.0430   22.4330 H   0  0  0  0  0  0  0  0  0  0  0  0
   32.5070    3.9480   15.4400 H   0  0  0  0  0  0  0  0  0  0  0  0
   30.4870    3.0210   14.6680 H   0  0  0  0  0  0  0  0  0  0  0  0
   30.2630    4.2420   13.3540 H   0  0  0  0  0  0  0  0  0  0  0  0
   32.5580    2.2460   13.1540 H   0  0  0  0  0  0  0  0  0  0  0  0
   33.6370    2.7340   11.3170 H   0  0  0  0  0  0  0  0  0  0  0  0
   33.6840    5.0230   10.2110 H   0  0  0  0  0  0  0  0  0  0  0  0
   32.3540    4.3920    9.1270 H   0  0  0  0  0  0  0  0  0  0  0  0
   35.0840    2.9480    9.4150 H   0  0  0  0  0  0  0  0  0  0  0  0
   33.8260    2.7120    8.1480 H   0  0  0  0  0  0  0  0  0  0  0  0
   35.4940    5.2870    8.5900 H   0  0  0  0  0  0  0  0  0  0  0  0
   35.7670    4.0310    7.3190 H   0  0  0  0  0  0  0  0  0  0  0  0
   34.0380    4.7810   14.1190 H   0  0  0  0  0  0  0  0  0  0  0  0
   31.0760    0.6090   11.9800 H   0  0  0  0  0  0  0  0  0  0  0  0
   29.6170    1.5930   12.4070 H   0  0  0  0  0  0  0  0  0  0  0  0
   30.6040    0.8220   13.7120 H   0  0  0  0  0  0  0  0  0  0  0  0
   34.5740    5.8930    6.2940 H   0  0  0  0  0  0  0  0  0  0  0  0
   33.3850    4.5260    6.4590 H   0  0  0  0  0  0  0  0  0  0  0  0
   33.3280    5.9220    7.6000 H   0  0  0  0  0  0  0  0  0  0  0  0
   30.9590    8.6790   13.9540 H   0  0  0  0  0  0  0  0  0  0  0  0
   32.7050    9.1470   14.1270 H   0  0  0  0  0  0  0  0  0  0  0  0
   31.4180   10.0970   14.9550 H   0  0  0  0  0  0  0  0  0  0  0  0
   21.1940    6.3370   16.7660 H   0  0  0  0  0  0  0  0  0  0  0  0
   22.3410    6.3070   15.3660 H   0  0  0  0  0  0  0  0  0  0  0  0
   21.9300    4.7710   16.2320 H   0  0  0  0  0  0  0  0  0  0  0  0
   30.4150    6.8870   22.6900 H   0  0  0  0  0  0  0  0  0  0  0  0
   31.2860    7.9730   21.5290 H   0  0  0  0  0  0  0  0  0  0  0  0
   30.3100    6.6040   20.9010 H   0  0  0  0  0  0  0  0  0  0  0  0
  1  2  1  0  0  0  0
  1 21  1  0  0  0  0
  2  3  1  0  0  0  0
  2 27  1  0  0  0  0
  2 40  1  6  0  0  0
  3  4  1  0  0  0  0
  4  5  1  0  0  0  0
  4 26  1  0  0  0  0
  4 43  1  1  0  0  0
  5  6  1  0  0  0  0
  6  7  1  0  0  0  0
  7  8  1  0  0  0  0
  8  9  1  0  0  0  0
  9 10  1  0  0  0  0
 10 11  1  0  0  0  0
 10 24  1  0  0  0  0
 11 12  1  0  0  0  0
 11 23  2  0  0  0  0
 12 13  2  0  0  0  0
 12 17  1  0  0  0  0
 13 14  1  0  0  0  0
 14 15  2  0  0  0  0
 14 21  1  0  0  0  0
 15 16  1  0  0  0  0
 16 17  2  0  0  0  0
 16 18  1  0  0  0  0
 18 19  1  0  0  0  0
 19 20  1  0  0  0  0
 21 22  2  0  0  0  0
 24 25  1  0  0  0  0
 27 28  1  0  0  0  0
 27 29  1  0  0  0  0
 27 61  1  6  0  0  0
 29 30  1  0  0  0  0
 30 31  1  0  0  0  0
 30 32  1  0  0  0  0
 30 64  1  1  0  0  0
 32 33  2  0  0  0  0
 32 34  1  0  0  0  0
 34 35  1  0  0  0  0
 35 36  1  0  0  0  0
 36 37  1  0  0  0  0
 37 38  1  0  0  0  0
 39  1  1  0  0  0  0
 41  3  1  0  0  0  0
 42  3  1  0  0  0  0
 44  5  1  0  0  0  0
 45  5  1  0  0  0  0
 46  6  1  0  0  0  0
 47  6  1  0  0  0  0
 48  7  1  0  0  0  0
 49  7  1  0  0  0  0
 50  8  1  0  0  0  0
 51  8  1  0  0  0  0
 52  9  1  0  0  0  0
 53  9  1  0  0  0  0
 54 13  1  0  0  0  0
 55 15  1  0  0  0  0
 56 17  1  0  0  0  0
 57 19  1  0  0  0  0
 58 19  1  0  0  0  0
 59 24  1  0  0  0  0
 60 24  1  0  0  0  0
 62 29  1  0  0  0  0
 63 29  1  0  0  0  0
 65 34  1  0  0  0  0
 66 35  1  0  0  0  0
 67 35  1  0  0  0  0
 68 36  1  0  0  0  0
 69 36  1  0  0  0  0
 70 37  1  0  0  0  0
 71 37  1  0  0  0  0
 72 28  1  0  0  0  0
 73 31  1  0  0  0  0
 74 31  1  0  0  0  0
 75 31  1  0  0  0  0
 76 38  1  0  0  0  0
 77 38  1  0  0  0  0
 78 38  1  0  0  0  0
 79 26  1  0  0  0  0
 80 26  1  0  0  0  0
 81 26  1  0  0  0  0
 82 20  1  0  0  0  0
 83 20  1  0  0  0  0
 84 20  1  0  0  0  0
 85 25  1  0  0  0  0
 86 25  1  0  0  0  0
 87 25  1  0  0  0  0
M  END
>  <IC50_NM>
16

>  <old_name>
BACE_1

>  <xray_resolution>
2.05

$$$$
