5QD0
 OpenBabel11252210453D

 80 81  0  0  1  0  0  0  0  0999 V2000
   30.7240    3.1060    8.8760 N   0  0  0  0  0  0  0  0  0  0  0  0
   30.2240    2.4280    9.9390 N   0  0  0  0  0  0  0  0  0  0  0  0
   31.2100    2.4300   10.8910 C   0  0  0  0  0  0  0  0  0  0  0  0
   32.3490    3.1490   10.4050 C   0  0  0  0  0  0  0  0  0  0  0  0
   32.0340    3.5620    9.1090 C   0  0  0  0  0  0  0  0  0  0  0  0
   32.8450    4.2460    8.0720 C   0  0  0  0  0  0  0  0  0  0  0  0
   34.2370    4.6660    8.5870 C   0  0  0  0  0  0  0  0  0  0  0  0
   35.1590    5.0650    7.4320 C   0  0  0  0  0  0  0  0  0  0  0  0
   31.0720    1.7010   12.1840 C   0  0  0  0  0  0  0  0  0  0  0  0
   31.8150    2.4320   13.3090 N   0  3  0  0  0  0  0  0  0  0  0  0
   31.1430    3.7530   13.6500 C   0  0  0  0  0  0  0  0  0  0  0  0
   32.0770    4.6230   14.5110 C   0  0  1  0  0  0  0  0  0  0  0  0
   33.2280    4.8180   13.6750 O   0  0  0  0  0  0  0  0  0  0  0  0
   31.3510    5.9710   14.8190 C   0  0  1  0  0  0  0  0  0  0  0  0
   30.2190    5.6030   15.7090 N   0  0  0  0  0  0  0  0  0  0  0  0
   28.8760    5.9040   15.4100 C   0  0  0  0  0  0  0  0  0  0  0  0
   27.9030    5.6710   16.5970 C   0  0  1  0  0  0  0  0  0  0  0  0
   28.1070    6.7390   17.6220 N   0  0  0  0  0  0  0  0  0  0  0  0
   27.6640    6.4620   18.9560 C   0  0  0  0  0  0  0  0  0  0  0  0
   27.8600    7.5510   20.0120 C   0  0  0  0  0  0  0  0  0  0  0  0
   28.5430    6.8670   21.0830 O   0  0  0  0  0  0  0  0  0  0  0  0
   29.7490    7.5430   21.5310 C   0  0  0  0  0  0  0  0  0  0  0  0
   30.9950    7.0570   20.7870 C   0  0  0  0  0  0  0  0  0  0  0  0
   31.1920    7.6410   19.3800 C   0  0  0  0  0  0  0  0  0  0  0  0
   31.4720    9.1500   19.4060 C   0  0  0  0  0  0  0  0  0  0  0  0
   31.6550    9.7990   18.0220 C   0  0  0  0  0  0  0  0  0  0  0  0
   32.4620    9.0090   16.9780 C   0  0  0  0  0  0  0  0  0  0  0  0
   31.5530    8.2220   16.0130 C   0  0  2  0  0  0  0  0  0  0  0  0
   32.3020    6.9790   15.4800 C   0  0  0  0  0  0  0  0  0  0  0  0
   31.0650    9.1300   14.8800 C   0  0  0  0  0  0  0  0  0  0  0  0
   27.2710    5.3590   19.2840 O   0  0  0  0  0  0  0  0  0  0  0  0
   27.9470    8.1310   17.1090 C   0  0  0  0  0  0  0  0  0  0  0  0
   26.4560    5.5740   16.1110 C   0  0  0  0  0  0  0  0  0  0  0  0
   28.5400    6.1760   14.2690 O   0  0  0  0  0  0  0  0  0  0  0  0
   33.2520    3.3680   10.9350 H   0  0  0  0  0  0  0  0  0  0  0  0
   32.3040    5.1590    7.7100 H   0  0  0  0  0  0  0  0  0  0  0  0
   32.9750    3.5460    7.2030 H   0  0  0  0  0  0  0  0  0  0  0  0
   34.1130    5.5240    9.2930 H   0  0  0  0  0  0  0  0  0  0  0  0
   34.6980    3.8130    9.1410 H   0  0  0  0  0  0  0  0  0  0  0  0
   29.9830    1.6000   12.4770 H   0  0  0  0  0  0  0  0  0  0  0  0
   31.5210    0.6670   12.0850 H   0  0  0  0  0  0  0  0  0  0  0  0
   32.8230    2.6300   12.9970 H   0  0  0  0  0  0  0  0  0  0  0  0
   31.8240    1.8350   14.1910 H   0  0  0  0  0  0  0  0  0  0  0  0
   30.9240    4.2980   12.6860 H   0  0  0  0  0  0  0  0  0  0  0  0
   30.1880    3.5490   14.2130 H   0  0  0  0  0  0  0  0  0  0  0  0
   32.3970    4.1200   15.4500 H   0  0  0  0  0  0  0  0  0  0  0  0
   30.9760    6.4130   13.8680 H   0  0  0  0  0  0  0  0  0  0  0  0
   30.5270    5.5180   16.6950 H   0  0  0  0  0  0  0  0  0  0  0  0
   28.2020    4.6910   17.0630 H   0  0  0  0  0  0  0  0  0  0  0  0
   26.8660    7.8710   20.4150 H   0  0  0  0  0  0  0  0  0  0  0  0
   28.4220    8.4400   19.6480 H   0  0  0  0  0  0  0  0  0  0  0  0
   29.7940    7.2210   22.6000 H   0  0  0  0  0  0  0  0  0  0  0  0
   29.6260    8.6470   21.4580 H   0  0  0  0  0  0  0  0  0  0  0  0
   31.8930    7.3340   21.3990 H   0  0  0  0  0  0  0  0  0  0  0  0
   30.9420    5.9490   20.7090 H   0  0  0  0  0  0  0  0  0  0  0  0
   30.3020    7.4340   18.7450 H   0  0  0  0  0  0  0  0  0  0  0  0
   32.0630    7.1340   18.8950 H   0  0  0  0  0  0  0  0  0  0  0  0
   30.6220    9.6850   19.8970 H   0  0  0  0  0  0  0  0  0  0  0  0
   32.3820    9.3380   20.0210 H   0  0  0  0  0  0  0  0  0  0  0  0
   32.1800   10.7750   18.1710 H   0  0  0  0  0  0  0  0  0  0  0  0
   30.6500   10.0300   17.5940 H   0  0  0  0  0  0  0  0  0  0  0  0
   33.0780    9.7280   16.3860 H   0  0  0  0  0  0  0  0  0  0  0  0
   33.1500    8.2960   17.4670 H   0  0  0  0  0  0  0  0  0  0  0  0
   30.6670    7.8730   16.5920 H   0  0  0  0  0  0  0  0  0  0  0  0
   32.8460    6.4790   16.3160 H   0  0  0  0  0  0  0  0  0  0  0  0
   33.0630    7.3020   14.7260 H   0  0  0  0  0  0  0  0  0  0  0  0
   30.1630    3.2470    8.0300 H   0  0  0  0  0  0  0  0  0  0  0  0
   26.3400    4.7140   15.4150 H   0  0  0  0  0  0  0  0  0  0  0  0
   25.7770    5.4120   16.9830 H   0  0  0  0  0  0  0  0  0  0  0  0
   26.1490    6.5170   15.6030 H   0  0  0  0  0  0  0  0  0  0  0  0
   34.0550    4.9980   14.2740 H   0  0  0  0  0  0  0  0  0  0  0  0
   30.2620    8.6350   14.3030 H   0  0  0  0  0  0  0  0  0  0  0  0
   31.9180    9.3740   14.2090 H   0  0  0  0  0  0  0  0  0  0  0  0
   30.6740   10.0800   15.3120 H   0  0  0  0  0  0  0  0  0  0  0  0
   28.2030    8.1780   16.0200 H   0  0  0  0  0  0  0  0  0  0  0  0
   26.9030    8.5130   17.2480 H   0  0  0  0  0  0  0  0  0  0  0  0
   28.6660    8.8130   17.6370 H   0  0  0  0  0  0  0  0  0  0  0  0
   36.0730    5.5550    7.8390 H   0  0  0  0  0  0  0  0  0  0  0  0
   35.4720    4.1580    6.8650 H   0  0  0  0  0  0  0  0  0  0  0  0
   34.6370    5.7700    6.7520 H   0  0  0  0  0  0  0  0  0  0  0  0
  1  2  1  0  0  0  0
  1  5  1  0  0  0  0
  2  3  2  0  0  0  0
  3  4  1  0  0  0  0
  3  9  1  0  0  0  0
  4  5  2  0  0  0  0
  5  6  1  0  0  0  0
  6  7  1  0  0  0  0
  7  8  1  0  0  0  0
  9 10  1  0  0  0  0
 10 11  1  0  0  0  0
 11 12  1  0  0  0  0
 12 13  1  0  0  0  0
 12 14  1  0  0  0  0
 12 46  1  1  0  0  0
 14 15  1  0  0  0  0
 14 29  1  0  0  0  0
 14 47  1  6  0  0  0
 15 16  1  0  0  0  0
 16 17  1  0  0  0  0
 16 34  2  0  0  0  0
 17 18  1  0  0  0  0
 17 33  1  0  0  0  0
 17 49  1  1  0  0  0
 18 19  1  0  0  0  0
 18 32  1  0  0  0  0
 19 20  1  0  0  0  0
 19 31  2  0  0  0  0
 20 21  1  0  0  0  0
 21 22  1  0  0  0  0
 22 23  1  0  0  0  0
 23 24  1  0  0  0  0
 24 25  1  0  0  0  0
 25 26  1  0  0  0  0
 26 27  1  0  0  0  0
 27 28  1  0  0  0  0
 28 29  1  0  0  0  0
 28 30  1  0  0  0  0
 28 64  1  1  0  0  0
 35  4  1  0  0  0  0
 36  6  1  0  0  0  0
 37  6  1  0  0  0  0
 38  7  1  0  0  0  0
 39  7  1  0  0  0  0
 40  9  1  0  0  0  0
 41  9  1  0  0  0  0
 42 10  1  0  0  0  0
 43 10  1  0  0  0  0
 44 11  1  0  0  0  0
 45 11  1  0  0  0  0
 48 15  1  0  0  0  0
 50 20  1  0  0  0  0
 51 20  1  0  0  0  0
 52 22  1  0  0  0  0
 53 22  1  0  0  0  0
 54 23  1  0  0  0  0
 55 23  1  0  0  0  0
 56 24  1  0  0  0  0
 57 24  1  0  0  0  0
 58 25  1  0  0  0  0
 59 25  1  0  0  0  0
 60 26  1  0  0  0  0
 61 26  1  0  0  0  0
 62 27  1  0  0  0  0
 63 27  1  0  0  0  0
 65 29  1  0  0  0  0
 66 29  1  0  0  0  0
 67  1  1  0  0  0  0
 68 33  1  0  0  0  0
 69 33  1  0  0  0  0
 70 33  1  0  0  0  0
 71 13  1  0  0  0  0
 72 30  1  0  0  0  0
 73 30  1  0  0  0  0
 74 30  1  0  0  0  0
 75 32  1  0  0  0  0
 76 32  1  0  0  0  0
 77 32  1  0  0  0  0
 78  8  1  0  0  0  0
 79  8  1  0  0  0  0
 80  8  1  0  0  0  0
M  CHG  1  10   1
M  END
>  <IC50_NM>
400

>  <charge>
1

>  <old_name>
BACE_5

>  <xray_resolution>
2.6

$$$$
