5QCR
 OpenBabel11252210453D

 78 79  0  0  1  0  0  0  0  0999 V2000
   30.4350    5.8670   16.1490 N   0  0  0  0  0  0  0  0  0  0  0  0
   31.5330    6.0870   15.1790 C   0  0  2  0  0  0  0  0  0  0  0  0
   32.0390    4.6780   14.7270 C   0  0  1  0  0  0  0  0  0  0  0  0
   33.0950    4.8490   13.7630 O   0  0  0  0  0  0  0  0  0  0  0  0
   30.8940    3.9210   14.0210 C   0  0  0  0  0  0  0  0  0  0  0  0
   31.3870    2.8430   13.0450 C   0  0  1  0  0  0  0  0  0  0  0  0
   30.5100    1.5870   13.0680 C   0  0  0  0  0  0  0  0  0  0  0  0
   31.3900    3.4200   11.6180 C   0  0  0  0  0  0  0  0  0  0  0  0
   30.4770    4.0890   11.1560 O   0  0  0  0  0  0  0  0  0  0  0  0
   32.4830    3.0120   10.8350 N   0  0  0  0  0  0  0  0  0  0  0  0
   32.8060    3.6700    9.5380 C   0  0  0  0  0  0  0  0  0  0  0  0
   34.1270    3.1000    8.9940 C   0  0  0  0  0  0  0  0  0  0  0  0
   34.4860    3.6800    7.6170 C   0  0  0  0  0  0  0  0  0  0  0  0
   34.6220    5.2030    7.6300 C   0  0  0  0  0  0  0  0  0  0  0  0
   32.6520    6.9400   15.8220 C   0  0  0  0  0  0  0  0  0  0  0  0
   32.1210    8.2620   16.3100 C   0  0  0  0  0  0  0  0  0  0  0  0
   31.8910    8.4740   17.6780 C   0  0  0  0  0  0  0  0  0  0  0  0
   31.3740    9.6910   18.1320 C   0  0  0  0  0  0  0  0  0  0  0  0
   31.0490   10.6990   17.2210 C   0  0  0  0  0  0  0  0  0  0  0  0
   31.2650   10.4890   15.8540 C   0  0  0  0  0  0  0  0  0  0  0  0
   31.8190    9.2900   15.4010 C   0  0  0  0  0  0  0  0  0  0  0  0
   29.1020    6.1740   15.8990 C   0  0  0  0  0  0  0  0  0  0  0  0
   28.7040    6.4410   14.7730 O   0  0  0  0  0  0  0  0  0  0  0  0
   28.1860    6.1070   17.1090 C   0  0  0  0  0  0  0  0  0  0  0  0
   28.6020    6.6340   18.3320 C   0  0  0  0  0  0  0  0  0  0  0  0
   27.7100    6.6270   19.4330 C   0  0  0  0  0  0  0  0  0  0  0  0
   26.4370    6.0980   19.3190 N   0  0  0  0  0  0  0  0  0  0  0  0
   26.0680    5.6100   18.1000 C   0  0  0  0  0  0  0  0  0  0  0  0
   26.9070    5.5720   16.9650 C   0  0  0  0  0  0  0  0  0  0  0  0
   24.7780    5.1570   18.1810 O   0  0  0  0  0  0  0  0  0  0  0  0
   24.0420    5.0160   16.9340 C   0  0  0  0  0  0  0  0  0  0  0  0
   28.0430    7.0350   20.7350 N   0  0  0  0  0  0  0  0  0  0  0  0
   29.0950    8.0790   20.9260 C   0  0  0  0  0  0  0  0  0  0  0  0
   30.1460    7.6410   21.9670 C   0  0  0  0  0  0  0  0  0  0  0  0
   30.8730    6.3460   21.5710 C   0  0  0  0  0  0  0  0  0  0  0  0
   31.2680    5.4430   22.7430 C   0  0  0  0  0  0  0  0  0  0  0  0
   30.7670    5.6610   17.1090 H   0  0  0  0  0  0  0  0  0  0  0  0
   31.1550    6.6350   14.2810 H   0  0  0  0  0  0  0  0  0  0  0  0
   32.4510    4.1030   15.5850 H   0  0  0  0  0  0  0  0  0  0  0  0
   30.2850    3.4390   14.8210 H   0  0  0  0  0  0  0  0  0  0  0  0
   30.2420    4.6450   13.4730 H   0  0  0  0  0  0  0  0  0  0  0  0
   32.4250    2.5550   13.3530 H   0  0  0  0  0  0  0  0  0  0  0  0
   33.3160    2.6410   11.3380 H   0  0  0  0  0  0  0  0  0  0  0  0
   31.9770    3.4750    8.8100 H   0  0  0  0  0  0  0  0  0  0  0  0
   32.9090    4.7780    9.6840 H   0  0  0  0  0  0  0  0  0  0  0  0
   34.0490    1.9930    8.8910 H   0  0  0  0  0  0  0  0  0  0  0  0
   34.9510    3.3260    9.7080 H   0  0  0  0  0  0  0  0  0  0  0  0
   35.4600    3.2300    7.3000 H   0  0  0  0  0  0  0  0  0  0  0  0
   33.7040    3.3740    6.8820 H   0  0  0  0  0  0  0  0  0  0  0  0
   33.1190    6.3750   16.6640 H   0  0  0  0  0  0  0  0  0  0  0  0
   33.4510    7.1000   15.0530 H   0  0  0  0  0  0  0  0  0  0  0  0
   32.1270    7.6980   18.4030 H   0  0  0  0  0  0  0  0  0  0  0  0
   31.2350    9.8550   19.2020 H   0  0  0  0  0  0  0  0  0  0  0  0
   30.6460   11.6500   17.5750 H   0  0  0  0  0  0  0  0  0  0  0  0
   30.9990   11.2730   15.1480 H   0  0  0  0  0  0  0  0  0  0  0  0
   32.0370    9.1570   14.3430 H   0  0  0  0  0  0  0  0  0  0  0  0
   29.6080    7.0430   18.4430 H   0  0  0  0  0  0  0  0  0  0  0  0
   26.5760    5.1320   16.0280 H   0  0  0  0  0  0  0  0  0  0  0  0
   27.2410    7.2050   21.3660 H   0  0  0  0  0  0  0  0  0  0  0  0
   29.6240    8.3140   19.9660 H   0  0  0  0  0  0  0  0  0  0  0  0
   28.6130    9.0340   21.2850 H   0  0  0  0  0  0  0  0  0  0  0  0
   29.6710    7.5690   22.9690 H   0  0  0  0  0  0  0  0  0  0  0  0
   30.9030    8.4710   22.0150 H   0  0  0  0  0  0  0  0  0  0  0  0
   30.2270    5.7780   20.8630 H   0  0  0  0  0  0  0  0  0  0  0  0
   31.7950    6.6440   21.0050 H   0  0  0  0  0  0  0  0  0  0  0  0
   33.9790    4.9450   14.2680 H   0  0  0  0  0  0  0  0  0  0  0  0
   22.9940    4.9010   17.3110 H   0  0  0  0  0  0  0  0  0  0  0  0
   24.1290    5.9370   16.3150 H   0  0  0  0  0  0  0  0  0  0  0  0
   24.3810    4.1070   16.3990 H   0  0  0  0  0  0  0  0  0  0  0  0
   30.8850    0.8400   12.3310 H   0  0  0  0  0  0  0  0  0  0  0  0
   29.4510    1.8320   12.8230 H   0  0  0  0  0  0  0  0  0  0  0  0
   30.5440    1.1270   14.0830 H   0  0  0  0  0  0  0  0  0  0  0  0
   32.3800    5.3980   22.8350 H   0  0  0  0  0  0  0  0  0  0  0  0
   30.8600    5.8120   23.7120 H   0  0  0  0  0  0  0  0  0  0  0  0
   30.9120    4.4020   22.5850 H   0  0  0  0  0  0  0  0  0  0  0  0
   35.2370    5.5440    6.7730 H   0  0  0  0  0  0  0  0  0  0  0  0
   35.1240    5.5320    8.5690 H   0  0  0  0  0  0  0  0  0  0  0  0
   33.6170    5.6840    7.5770 H   0  0  0  0  0  0  0  0  0  0  0  0
  1  2  1  0  0  0  0
  1 22  1  0  0  0  0
  2  3  1  0  0  0  0
  2 15  1  0  0  0  0
  2 38  1  6  0  0  0
  3  4  1  0  0  0  0
  3  5  1  0  0  0  0
  3 39  1  6  0  0  0
  5  6  1  0  0  0  0
  6  7  1  0  0  0  0
  6  8  1  0  0  0  0
  6 42  1  1  0  0  0
  8  9  2  0  0  0  0
  8 10  1  0  0  0  0
 10 11  1  0  0  0  0
 11 12  1  0  0  0  0
 12 13  1  0  0  0  0
 13 14  1  0  0  0  0
 15 16  1  0  0  0  0
 16 17  2  0  0  0  0
 16 21  1  0  0  0  0
 17 18  1  0  0  0  0
 18 19  2  0  0  0  0
 19 20  1  0  0  0  0
 20 21  2  0  0  0  0
 22 23  2  0  0  0  0
 22 24  1  0  0  0  0
 24 25  2  0  0  0  0
 24 29  1  0  0  0  0
 25 26  1  0  0  0  0
 26 27  2  0  0  0  0
 26 32  1  0  0  0  0
 27 28  1  0  0  0  0
 28 29  2  0  0  0  0
 28 30  1  0  0  0  0
 30 31  1  0  0  0  0
 32 33  1  0  0  0  0
 33 34  1  0  0  0  0
 34 35  1  0  0  0  0
 35 36  1  0  0  0  0
 37  1  1  0  0  0  0
 40  5  1  0  0  0  0
 41  5  1  0  0  0  0
 43 10  1  0  0  0  0
 44 11  1  0  0  0  0
 45 11  1  0  0  0  0
 46 12  1  0  0  0  0
 47 12  1  0  0  0  0
 48 13  1  0  0  0  0
 49 13  1  0  0  0  0
 50 15  1  0  0  0  0
 51 15  1  0  0  0  0
 52 17  1  0  0  0  0
 53 18  1  0  0  0  0
 54 19  1  0  0  0  0
 55 20  1  0  0  0  0
 56 21  1  0  0  0  0
 57 25  1  0  0  0  0
 58 29  1  0  0  0  0
 59 32  1  0  0  0  0
 60 33  1  0  0  0  0
 61 33  1  0  0  0  0
 62 34  1  0  0  0  0
 63 34  1  0  0  0  0
 64 35  1  0  0  0  0
 65 35  1  0  0  0  0
 66  4  1  0  0  0  0
 67 31  1  0  0  0  0
 68 31  1  0  0  0  0
 69 31  1  0  0  0  0
 70  7  1  0  0  0  0
 71  7  1  0  0  0  0
 72  7  1  0  0  0  0
 73 36  1  0  0  0  0
 74 36  1  0  0  0  0
 75 36  1  0  0  0  0
 76 14  1  0  0  0  0
 77 14  1  0  0  0  0
 78 14  1  0  0  0  0
M  END
>  <IC50_NM>
770

>  <old_name>
BACE_20

>  <xray_resolution>
2.2

$$$$
