5QCU
 OpenBabel11252210453D

 76 77  0  0  1  0  0  0  0  0999 V2000
   26.8670    7.0830   19.0490 S   0  0  0  0  0  0  0  0  0  0  0  0
   27.8080    6.9750   17.5640 C   0  0  0  0  0  0  0  0  0  0  0  0
   27.7290    5.6770   16.7550 C   0  0  2  0  0  0  0  0  0  0  0  0
   28.7060    5.8200   15.5580 C   0  0  0  0  0  0  0  0  0  0  0  0
   30.0500    5.6230   15.8890 N   0  0  0  0  0  0  0  0  0  0  0  0
   31.1520    5.9400   14.9440 C   0  0  1  0  0  0  0  0  0  0  0  0
   32.1160    6.9630   15.5610 C   0  0  0  0  0  0  0  0  0  0  0  0
   31.3870    8.2140   16.1150 C   0  0  1  0  0  0  0  0  0  0  0  0
   32.3920    9.0500   16.9320 C   0  0  0  0  0  0  0  0  0  0  0  0
   31.7470   10.1000   17.8540 C   0  0  0  0  0  0  0  0  0  0  0  0
   30.9190    9.5000   18.9580 C   0  0  0  0  0  0  0  0  0  0  0  0
   29.5260    9.4040   18.8290 C   0  0  0  0  0  0  0  0  0  0  0  0
   28.7470    8.8460   19.8550 C   0  0  0  0  0  0  0  0  0  0  0  0
   29.3610    8.4140   21.0390 C   0  0  0  0  0  0  0  0  0  0  0  0
   30.7510    8.4850   21.1580 C   0  0  0  0  0  0  0  0  0  0  0  0
   31.5260    9.0340   20.1360 C   0  0  0  0  0  0  0  0  0  0  0  0
   27.2710    8.6800   19.6680 C   0  0  0  0  0  0  0  0  0  0  0  0
   30.7340    9.0500   15.0100 C   0  0  0  0  0  0  0  0  0  0  0  0
   31.8120    4.5740   14.5670 C   0  0  1  0  0  0  0  0  0  0  0  0
   32.8720    4.7920   13.6180 O   0  0  0  0  0  0  0  0  0  0  0  0
   30.7460    3.6950   13.8790 C   0  0  0  0  0  0  0  0  0  0  0  0
   31.3200    2.6100   12.9580 C   0  0  1  0  0  0  0  0  0  0  0  0
   30.5080    1.3140   13.0490 C   0  0  0  0  0  0  0  0  0  0  0  0
   31.3000    3.1130   11.5030 C   0  0  0  0  0  0  0  0  0  0  0  0
   30.3310    3.6370   10.9750 O   0  0  0  0  0  0  0  0  0  0  0  0
   32.4550    2.8010   10.7610 N   0  0  0  0  0  0  0  0  0  0  0  0
   32.7550    3.5000    9.4790 C   0  0  0  0  0  0  0  0  0  0  0  0
   34.1450    3.0730    8.9760 C   0  0  0  0  0  0  0  0  0  0  0  0
   34.4560    3.6640    7.5900 C   0  0  0  0  0  0  0  0  0  0  0  0
   34.3530    5.1910    7.5540 C   0  0  0  0  0  0  0  0  0  0  0  0
   28.3840    6.0210   14.3960 O   0  0  0  0  0  0  0  0  0  0  0  0
   26.3240    5.3510   16.2570 C   0  0  0  0  0  0  0  0  0  0  0  0
   25.4240    7.0140   18.8030 O   0  0  0  0  0  0  0  0  0  0  0  0
   27.3310    6.0520   20.0090 O   0  0  0  0  0  0  0  0  0  0  0  0
   28.8940    7.1480   17.8380 H   0  0  0  0  0  0  0  0  0  0  0  0
   27.5250    7.8340   16.8850 H   0  0  0  0  0  0  0  0  0  0  0  0
   28.0910    4.8170   17.3710 H   0  0  0  0  0  0  0  0  0  0  0  0
   30.3720    5.4990   16.8630 H   0  0  0  0  0  0  0  0  0  0  0  0
   30.7310    6.3900   14.0130 H   0  0  0  0  0  0  0  0  0  0  0  0
   32.8480    7.2830   14.7810 H   0  0  0  0  0  0  0  0  0  0  0  0
   32.6850    6.4810   16.3900 H   0  0  0  0  0  0  0  0  0  0  0  0
   30.5940    7.8790   16.8240 H   0  0  0  0  0  0  0  0  0  0  0  0
   33.0840    9.5790   16.2370 H   0  0  0  0  0  0  0  0  0  0  0  0
   32.9720    8.3350   17.5510 H   0  0  0  0  0  0  0  0  0  0  0  0
   32.5740   10.7060   18.2950 H   0  0  0  0  0  0  0  0  0  0  0  0
   31.1210   10.7940   17.2400 H   0  0  0  0  0  0  0  0  0  0  0  0
   29.0540    9.7870   17.9230 H   0  0  0  0  0  0  0  0  0  0  0  0
   28.7650    8.0390   21.8700 H   0  0  0  0  0  0  0  0  0  0  0  0
   31.2380    8.0960   22.0500 H   0  0  0  0  0  0  0  0  0  0  0  0
   32.6000    9.1110   20.2600 H   0  0  0  0  0  0  0  0  0  0  0  0
   26.8930    9.4900   18.9770 H   0  0  0  0  0  0  0  0  0  0  0  0
   26.7460    8.8840   20.6450 H   0  0  0  0  0  0  0  0  0  0  0  0
   32.2500    4.0830   15.4630 H   0  0  0  0  0  0  0  0  0  0  0  0
   30.1620    3.2140   14.7000 H   0  0  0  0  0  0  0  0  0  0  0  0
   30.0500    4.3470   13.2960 H   0  0  0  0  0  0  0  0  0  0  0  0
   32.3690    2.4050   13.2900 H   0  0  0  0  0  0  0  0  0  0  0  0
   33.3100    2.5520   11.3040 H   0  0  0  0  0  0  0  0  0  0  0  0
   32.7420    4.6120    9.6340 H   0  0  0  0  0  0  0  0  0  0  0  0
   31.9770    3.2300    8.7200 H   0  0  0  0  0  0  0  0  0  0  0  0
   34.9210    3.4160    9.6980 H   0  0  0  0  0  0  0  0  0  0  0  0
   34.2050    1.9610    8.9030 H   0  0  0  0  0  0  0  0  0  0  0  0
   35.4990    3.3610    7.3210 H   0  0  0  0  0  0  0  0  0  0  0  0
   33.7600    3.2150    6.8430 H   0  0  0  0  0  0  0  0  0  0  0  0
   30.2570    9.9520   15.4550 H   0  0  0  0  0  0  0  0  0  0  0  0
   29.9590    8.4590   14.4880 H   0  0  0  0  0  0  0  0  0  0  0  0
   31.5150    9.3830   14.2930 H   0  0  0  0  0  0  0  0  0  0  0  0
   30.8560    0.5760   12.2960 H   0  0  0  0  0  0  0  0  0  0  0  0
   29.4240    1.5110   12.8790 H   0  0  0  0  0  0  0  0  0  0  0  0
   30.6310    0.8760   14.0670 H   0  0  0  0  0  0  0  0  0  0  0  0
   35.0060    5.6070    6.7620 H   0  0  0  0  0  0  0  0  0  0  0  0
   33.3020    5.5110    7.3750 H   0  0  0  0  0  0  0  0  0  0  0  0
   34.6870    5.6110    8.5310 H   0  0  0  0  0  0  0  0  0  0  0  0
   33.7240    4.9690   14.1180 H   0  0  0  0  0  0  0  0  0  0  0  0
   26.3570    4.4790   15.5620 H   0  0  0  0  0  0  0  0  0  0  0  0
   25.8780    6.2270   15.7310 H   0  0  0  0  0  0  0  0  0  0  0  0
   25.6550    5.0830   17.1100 H   0  0  0  0  0  0  0  0  0  0  0  0
  1  2  1  0  0  0  0
  1 17  1  0  0  0  0
  1 33  2  0  0  0  0
  1 34  2  0  0  0  0
  2  3  1  0  0  0  0
  3  4  1  0  0  0  0
  3 32  1  0  0  0  0
  3 37  1  1  0  0  0
  4  5  1  0  0  0  0
  4 31  2  0  0  0  0
  5  6  1  0  0  0  0
  6  7  1  0  0  0  0
  6 19  1  0  0  0  0
  6 39  1  6  0  0  0
  7  8  1  0  0  0  0
  8  9  1  0  0  0  0
  8 18  1  0  0  0  0
  8 42  1  1  0  0  0
  9 10  1  0  0  0  0
 10 11  1  0  0  0  0
 11 12  2  0  0  0  0
 11 16  1  0  0  0  0
 12 13  1  0  0  0  0
 13 14  2  0  0  0  0
 13 17  1  0  0  0  0
 14 15  1  0  0  0  0
 15 16  2  0  0  0  0
 19 20  1  0  0  0  0
 19 21  1  0  0  0  0
 19 53  1  6  0  0  0
 21 22  1  0  0  0  0
 22 23  1  0  0  0  0
 22 24  1  0  0  0  0
 22 56  1  1  0  0  0
 24 25  2  0  0  0  0
 24 26  1  0  0  0  0
 26 27  1  0  0  0  0
 27 28  1  0  0  0  0
 28 29  1  0  0  0  0
 29 30  1  0  0  0  0
 35  2  1  0  0  0  0
 36  2  1  0  0  0  0
 38  5  1  0  0  0  0
 40  7  1  0  0  0  0
 41  7  1  0  0  0  0
 43  9  1  0  0  0  0
 44  9  1  0  0  0  0
 45 10  1  0  0  0  0
 46 10  1  0  0  0  0
 47 12  1  0  0  0  0
 48 14  1  0  0  0  0
 49 15  1  0  0  0  0
 50 16  1  0  0  0  0
 51 17  1  0  0  0  0
 52 17  1  0  0  0  0
 54 21  1  0  0  0  0
 55 21  1  0  0  0  0
 57 26  1  0  0  0  0
 58 27  1  0  0  0  0
 59 27  1  0  0  0  0
 60 28  1  0  0  0  0
 61 28  1  0  0  0  0
 62 29  1  0  0  0  0
 63 29  1  0  0  0  0
 64 18  1  0  0  0  0
 65 18  1  0  0  0  0
 66 18  1  0  0  0  0
 67 23  1  0  0  0  0
 68 23  1  0  0  0  0
 69 23  1  0  0  0  0
 70 30  1  0  0  0  0
 71 30  1  0  0  0  0
 72 30  1  0  0  0  0
 73 20  1  0  0  0  0
 74 32  1  0  0  0  0
 75 32  1  0  0  0  0
 76 32  1  0  0  0  0
M  END
>  <IC50_NM>
260

>  <old_name>
BACE_19

>  <xray_resolution>
1.95

$$$$
